
#
# ***************
# KPP parameters
# ***************


 &KPP_PARM01

 KPPmixingMaps   = .FALSE.,
 KPPwriteState   = .TRUE.,
 kpp_dumpFreq    = 0.,
 kpp_tavefreq    = 0., 
 &
